MatpowerDataProcesssed/d_case3.m
% 01/10/12 File data originated from Matpower data file
% 

Bus.con = [ ...
      1      345        1        0    1    1;
      2      345        1   -1.396    1    1;
      3      345        1   -1.396    1    1;
   ];

SW.con = [ ...
      1      100      345        1        0        6       -6     1.05     0.95        4 1 1  1;
   ];

PV.con = [ ...
   3      100      345        0        1        6       -6     1.05     0.95 1  1;
   ];

PQ.con = [ ...
   2 100      345    3.525        0     1.05        0 0 1;
   3 100      345        0        0     1.05     0.95 0 1;
   ];

Line.con = [ ...
   1    2 100      345 60 0         0     0.04      0.2        0        0        0    99.99    99.99    99.99  1;
   2    3 100      345 60 0         0   0.0009    0.001        0        0        0    99.99    99.99    99.99  1;
   ];

Supply.con = [ ...
   1       100        0       10        0        0        0        1        0        0        0        0  1 0 1;
   3       100        0        0        0        0        0        1        0        0        0        0  1 0 1;
   ];

Bus.names = {...
      'Bus 1'; 'Bus 2'; 'Bus 3'};

